src/test/resources/hvdc_alignment/nl_outage.uct
##C 2007.05.01
##N
##ZNL
NEOS381E EOS380       0 0        0.00000 0.00000 0.00000 0.00000
##ZDK
K1EDR_1  ERR     CS1  0 0        0.00000 0.00000 0.00000 0.00000
##ZXX
XXX_EE1N XXX_EE1N     0 0        0       0       0       0
XXX_EE1D ERR_HVDCCP1  1 0        -104.90 11.1000 -0.0000 0.00324
##L
NEOS381E XXX_EE1N 1 8 0.0010 0.0500 0.000000 999000 EOS-COBRA380
XXX_EE1D K1EDR_1  1 2 0.0000 0.0500 0.000000   9999 C_ERR-P1
##T
##R